* NGSPICE file created from team_05.ext - technology: sky130A

* Black-box entry subcircuit for sky130_fd_sc_hd__or2_1 abstract view
.subckt sky130_fd_sc_hd__or2_1 A B VGND VNB VPB VPWR X
.ends

* Black-box entry subcircuit for sky130_fd_sc_hd__mux2_1 abstract view
.subckt sky130_fd_sc_hd__mux2_1 A0 A1 S VGND VNB VPB VPWR X
.ends

* Black-box entry subcircuit for sky130_fd_sc_hd__and2_1 abstract view
.subckt sky130_fd_sc_hd__and2_1 A B VGND VNB VPB VPWR X
.ends

* Black-box entry subcircuit for sky130_fd_sc_hd__diode_2 abstract view
.subckt sky130_fd_sc_hd__diode_2 DIODE VGND VNB VPB VPWR
.ends

* Black-box entry subcircuit for sky130_fd_sc_hd__and4_1 abstract view
.subckt sky130_fd_sc_hd__and4_1 A B C D VGND VNB VPB VPWR X
.ends

* Black-box entry subcircuit for sky130_fd_sc_hd__a22o_1 abstract view
.subckt sky130_fd_sc_hd__a22o_1 A1 A2 B1 B2 VGND VNB VPB VPWR X
.ends

* Black-box entry subcircuit for sky130_fd_sc_hd__nor2_2 abstract view
.subckt sky130_fd_sc_hd__nor2_2 A B VGND VNB VPB VPWR Y
.ends

* Black-box entry subcircuit for sky130_fd_sc_hd__tapvpwrvgnd_1 abstract view
.subckt sky130_fd_sc_hd__tapvpwrvgnd_1 VGND VPWR
.ends

* Black-box entry subcircuit for sky130_ef_sc_hd__decap_12 abstract view
.subckt sky130_ef_sc_hd__decap_12 VPWR VGND VPB VNB
.ends

* Black-box entry subcircuit for sky130_fd_sc_hd__fill_1 abstract view
.subckt sky130_fd_sc_hd__fill_1 VGND VNB VPB VPWR
.ends

* Black-box entry subcircuit for sky130_fd_sc_hd__o21a_1 abstract view
.subckt sky130_fd_sc_hd__o21a_1 A1 A2 B1 VGND VNB VPB VPWR X
.ends

* Black-box entry subcircuit for sky130_fd_sc_hd__nand3_1 abstract view
.subckt sky130_fd_sc_hd__nand3_1 A B C VGND VNB VPB VPWR Y
.ends

* Black-box entry subcircuit for sky130_fd_sc_hd__nor2_1 abstract view
.subckt sky130_fd_sc_hd__nor2_1 A B VGND VNB VPB VPWR Y
.ends

* Black-box entry subcircuit for sky130_fd_sc_hd__a211o_1 abstract view
.subckt sky130_fd_sc_hd__a211o_1 A1 A2 B1 C1 VGND VNB VPB VPWR X
.ends

* Black-box entry subcircuit for sky130_fd_sc_hd__dlygate4sd3_1 abstract view
.subckt sky130_fd_sc_hd__dlygate4sd3_1 A VGND VNB VPB VPWR X
.ends

* Black-box entry subcircuit for sky130_fd_sc_hd__nand2_1 abstract view
.subckt sky130_fd_sc_hd__nand2_1 A B VGND VNB VPB VPWR Y
.ends

* Black-box entry subcircuit for sky130_fd_sc_hd__clkbuf_2 abstract view
.subckt sky130_fd_sc_hd__clkbuf_2 A VGND VNB VPB VPWR X
.ends

* Black-box entry subcircuit for sky130_fd_sc_hd__buf_2 abstract view
.subckt sky130_fd_sc_hd__buf_2 A VGND VNB VPB VPWR X
.ends

* Black-box entry subcircuit for sky130_fd_sc_hd__dfrtp_1 abstract view
.subckt sky130_fd_sc_hd__dfrtp_1 CLK D RESET_B VGND VNB VPB VPWR Q
.ends

* Black-box entry subcircuit for sky130_fd_sc_hd__dfxtp_1 abstract view
.subckt sky130_fd_sc_hd__dfxtp_1 CLK D VGND VNB VPB VPWR Q
.ends

* Black-box entry subcircuit for sky130_fd_sc_hd__fill_2 abstract view
.subckt sky130_fd_sc_hd__fill_2 VGND VNB VPB VPWR
.ends

* Black-box entry subcircuit for sky130_fd_sc_hd__dfrtp_4 abstract view
.subckt sky130_fd_sc_hd__dfrtp_4 CLK D RESET_B VGND VNB VPB VPWR Q
.ends

* Black-box entry subcircuit for sky130_fd_sc_hd__dfrtp_2 abstract view
.subckt sky130_fd_sc_hd__dfrtp_2 CLK D RESET_B VGND VNB VPB VPWR Q
.ends

* Black-box entry subcircuit for sky130_fd_sc_hd__decap_3 abstract view
.subckt sky130_fd_sc_hd__decap_3 VGND VNB VPB VPWR
.ends

* Black-box entry subcircuit for sky130_fd_sc_hd__decap_4 abstract view
.subckt sky130_fd_sc_hd__decap_4 VGND VNB VPB VPWR
.ends

* Black-box entry subcircuit for sky130_fd_sc_hd__a211oi_1 abstract view
.subckt sky130_fd_sc_hd__a211oi_1 A1 A2 B1 C1 VGND VNB VPB VPWR Y
.ends

* Black-box entry subcircuit for sky130_fd_sc_hd__clkbuf_4 abstract view
.subckt sky130_fd_sc_hd__clkbuf_4 A VGND VNB VPB VPWR X
.ends

* Black-box entry subcircuit for sky130_fd_sc_hd__a221o_1 abstract view
.subckt sky130_fd_sc_hd__a221o_1 A1 A2 B1 B2 C1 VGND VNB VPB VPWR X
.ends

* Black-box entry subcircuit for sky130_fd_sc_hd__o22a_1 abstract view
.subckt sky130_fd_sc_hd__o22a_1 A1 A2 B1 B2 VGND VNB VPB VPWR X
.ends

* Black-box entry subcircuit for sky130_fd_sc_hd__o221a_1 abstract view
.subckt sky130_fd_sc_hd__o221a_1 A1 A2 B1 B2 C1 VGND VNB VPB VPWR X
.ends

* Black-box entry subcircuit for sky130_fd_sc_hd__a21oi_1 abstract view
.subckt sky130_fd_sc_hd__a21oi_1 A1 A2 B1 VGND VNB VPB VPWR Y
.ends

* Black-box entry subcircuit for sky130_fd_sc_hd__o211a_1 abstract view
.subckt sky130_fd_sc_hd__o211a_1 A1 A2 B1 C1 VGND VNB VPB VPWR X
.ends

* Black-box entry subcircuit for sky130_fd_sc_hd__a2bb2o_1 abstract view
.subckt sky130_fd_sc_hd__a2bb2o_1 A1_N A2_N B1 B2 VGND VNB VPB VPWR X
.ends

* Black-box entry subcircuit for sky130_fd_sc_hd__decap_6 abstract view
.subckt sky130_fd_sc_hd__decap_6 VGND VNB VPB VPWR
.ends

* Black-box entry subcircuit for sky130_fd_sc_hd__buf_1 abstract view
.subckt sky130_fd_sc_hd__buf_1 A VGND VNB VPB VPWR X
.ends

* Black-box entry subcircuit for sky130_fd_sc_hd__or3b_1 abstract view
.subckt sky130_fd_sc_hd__or3b_1 A B C_N VGND VNB VPB VPWR X
.ends

* Black-box entry subcircuit for sky130_fd_sc_hd__or3_1 abstract view
.subckt sky130_fd_sc_hd__or3_1 A B C VGND VNB VPB VPWR X
.ends

* Black-box entry subcircuit for sky130_fd_sc_hd__clkbuf_8 abstract view
.subckt sky130_fd_sc_hd__clkbuf_8 A VGND VNB VPB VPWR X
.ends

* Black-box entry subcircuit for sky130_fd_sc_hd__inv_2 abstract view
.subckt sky130_fd_sc_hd__inv_2 A VGND VNB VPB VPWR Y
.ends

* Black-box entry subcircuit for sky130_fd_sc_hd__xor2_1 abstract view
.subckt sky130_fd_sc_hd__xor2_1 A B VGND VNB VPB VPWR X
.ends

* Black-box entry subcircuit for sky130_fd_sc_hd__and3_1 abstract view
.subckt sky130_fd_sc_hd__and3_1 A B C VGND VNB VPB VPWR X
.ends

* Black-box entry subcircuit for sky130_fd_sc_hd__decap_8 abstract view
.subckt sky130_fd_sc_hd__decap_8 VGND VNB VPB VPWR
.ends

* Black-box entry subcircuit for sky130_fd_sc_hd__dfstp_2 abstract view
.subckt sky130_fd_sc_hd__dfstp_2 CLK D SET_B VGND VNB VPB VPWR Q
.ends

* Black-box entry subcircuit for sky130_fd_sc_hd__o21bai_1 abstract view
.subckt sky130_fd_sc_hd__o21bai_1 A1 A2 B1_N VGND VNB VPB VPWR Y
.ends

* Black-box entry subcircuit for sky130_fd_sc_hd__clkbuf_1 abstract view
.subckt sky130_fd_sc_hd__clkbuf_1 A VGND VNB VPB VPWR X
.ends

* Black-box entry subcircuit for sky130_fd_sc_hd__or4b_1 abstract view
.subckt sky130_fd_sc_hd__or4b_1 A B C D_N VGND VNB VPB VPWR X
.ends

* Black-box entry subcircuit for sky130_fd_sc_hd__mux4_1 abstract view
.subckt sky130_fd_sc_hd__mux4_1 A0 A1 A2 A3 S0 S1 VGND VNB VPB VPWR X
.ends

* Black-box entry subcircuit for sky130_fd_sc_hd__dfstp_1 abstract view
.subckt sky130_fd_sc_hd__dfstp_1 CLK D SET_B VGND VNB VPB VPWR Q
.ends

* Black-box entry subcircuit for sky130_fd_sc_hd__xnor2_1 abstract view
.subckt sky130_fd_sc_hd__xnor2_1 A B VGND VNB VPB VPWR Y
.ends

* Black-box entry subcircuit for sky130_fd_sc_hd__and2b_1 abstract view
.subckt sky130_fd_sc_hd__and2b_1 A_N B VGND VNB VPB VPWR X
.ends

* Black-box entry subcircuit for sky130_fd_sc_hd__a31o_1 abstract view
.subckt sky130_fd_sc_hd__a31o_1 A1 A2 A3 B1 VGND VNB VPB VPWR X
.ends

* Black-box entry subcircuit for sky130_fd_sc_hd__o31a_1 abstract view
.subckt sky130_fd_sc_hd__o31a_1 A1 A2 A3 B1 VGND VNB VPB VPWR X
.ends

* Black-box entry subcircuit for sky130_fd_sc_hd__a21o_1 abstract view
.subckt sky130_fd_sc_hd__a21o_1 A1 A2 B1 VGND VNB VPB VPWR X
.ends

* Black-box entry subcircuit for sky130_fd_sc_hd__nand2b_1 abstract view
.subckt sky130_fd_sc_hd__nand2b_1 A_N B VGND VNB VPB VPWR Y
.ends

* Black-box entry subcircuit for sky130_fd_sc_hd__a32o_1 abstract view
.subckt sky130_fd_sc_hd__a32o_1 A1 A2 A3 B1 B2 VGND VNB VPB VPWR X
.ends

* Black-box entry subcircuit for sky130_fd_sc_hd__buf_4 abstract view
.subckt sky130_fd_sc_hd__buf_4 A VGND VNB VPB VPWR X
.ends

* Black-box entry subcircuit for sky130_fd_sc_hd__o21ai_1 abstract view
.subckt sky130_fd_sc_hd__o21ai_1 A1 A2 B1 VGND VNB VPB VPWR Y
.ends

* Black-box entry subcircuit for sky130_fd_sc_hd__or2_2 abstract view
.subckt sky130_fd_sc_hd__or2_2 A B VGND VNB VPB VPWR X
.ends

* Black-box entry subcircuit for sky130_fd_sc_hd__and3b_1 abstract view
.subckt sky130_fd_sc_hd__and3b_1 A_N B C VGND VNB VPB VPWR X
.ends

* Black-box entry subcircuit for sky130_fd_sc_hd__a21bo_1 abstract view
.subckt sky130_fd_sc_hd__a21bo_1 A1 A2 B1_N VGND VNB VPB VPWR X
.ends

* Black-box entry subcircuit for sky130_fd_sc_hd__and3_2 abstract view
.subckt sky130_fd_sc_hd__and3_2 A B C VGND VNB VPB VPWR X
.ends

* Black-box entry subcircuit for sky130_fd_sc_hd__and4b_1 abstract view
.subckt sky130_fd_sc_hd__and4b_1 A_N B C D VGND VNB VPB VPWR X
.ends

* Black-box entry subcircuit for sky130_fd_sc_hd__conb_1 abstract view
.subckt sky130_fd_sc_hd__conb_1 VGND VNB VPB VPWR HI LO
.ends

* Black-box entry subcircuit for sky130_fd_sc_hd__o32a_1 abstract view
.subckt sky130_fd_sc_hd__o32a_1 A1 A2 A3 B1 B2 VGND VNB VPB VPWR X
.ends

* Black-box entry subcircuit for sky130_fd_sc_hd__nand2_4 abstract view
.subckt sky130_fd_sc_hd__nand2_4 A B VGND VNB VPB VPWR Y
.ends

* Black-box entry subcircuit for sky130_fd_sc_hd__o311a_1 abstract view
.subckt sky130_fd_sc_hd__o311a_1 A1 A2 A3 B1 C1 VGND VNB VPB VPWR X
.ends

* Black-box entry subcircuit for sky130_fd_sc_hd__nor3_1 abstract view
.subckt sky130_fd_sc_hd__nor3_1 A B C VGND VNB VPB VPWR Y
.ends

* Black-box entry subcircuit for sky130_fd_sc_hd__a21oi_2 abstract view
.subckt sky130_fd_sc_hd__a21oi_2 A1 A2 B1 VGND VNB VPB VPWR Y
.ends

* Black-box entry subcircuit for sky130_fd_sc_hd__xor2_4 abstract view
.subckt sky130_fd_sc_hd__xor2_4 A B VGND VNB VPB VPWR X
.ends

* Black-box entry subcircuit for sky130_fd_sc_hd__dlymetal6s2s_1 abstract view
.subckt sky130_fd_sc_hd__dlymetal6s2s_1 A VGND VNB VPB VPWR X
.ends

* Black-box entry subcircuit for sky130_fd_sc_hd__a31o_2 abstract view
.subckt sky130_fd_sc_hd__a31o_2 A1 A2 A3 B1 VGND VNB VPB VPWR X
.ends

* Black-box entry subcircuit for sky130_fd_sc_hd__o2bb2a_1 abstract view
.subckt sky130_fd_sc_hd__o2bb2a_1 A1_N A2_N B1 B2 VGND VNB VPB VPWR X
.ends

* Black-box entry subcircuit for sky130_fd_sc_hd__clkinv_4 abstract view
.subckt sky130_fd_sc_hd__clkinv_4 A VGND VNB VPB VPWR Y
.ends

* Black-box entry subcircuit for sky130_fd_sc_hd__or4bb_1 abstract view
.subckt sky130_fd_sc_hd__or4bb_1 A B C_N D_N VGND VNB VPB VPWR X
.ends

* Black-box entry subcircuit for sky130_fd_sc_hd__a41o_1 abstract view
.subckt sky130_fd_sc_hd__a41o_1 A1 A2 A3 A4 B1 VGND VNB VPB VPWR X
.ends

* Black-box entry subcircuit for sky130_fd_sc_hd__or4_1 abstract view
.subckt sky130_fd_sc_hd__or4_1 A B C D VGND VNB VPB VPWR X
.ends

* Black-box entry subcircuit for sky130_fd_sc_hd__or3_2 abstract view
.subckt sky130_fd_sc_hd__or3_2 A B C VGND VNB VPB VPWR X
.ends

* Black-box entry subcircuit for sky130_fd_sc_hd__or2_4 abstract view
.subckt sky130_fd_sc_hd__or2_4 A B VGND VNB VPB VPWR X
.ends

* Black-box entry subcircuit for sky130_fd_sc_hd__and4b_2 abstract view
.subckt sky130_fd_sc_hd__and4b_2 A_N B C D VGND VNB VPB VPWR X
.ends

* Black-box entry subcircuit for sky130_fd_sc_hd__o22ai_1 abstract view
.subckt sky130_fd_sc_hd__o22ai_1 A1 A2 B1 B2 VGND VNB VPB VPWR Y
.ends

* Black-box entry subcircuit for sky130_fd_sc_hd__nor4_1 abstract view
.subckt sky130_fd_sc_hd__nor4_1 A B C D VGND VNB VPB VPWR Y
.ends

* Black-box entry subcircuit for sky130_fd_sc_hd__a221o_2 abstract view
.subckt sky130_fd_sc_hd__a221o_2 A1 A2 B1 B2 C1 VGND VNB VPB VPWR X
.ends

* Black-box entry subcircuit for sky130_fd_sc_hd__o2111a_2 abstract view
.subckt sky130_fd_sc_hd__o2111a_2 A1 A2 B1 C1 D1 VGND VNB VPB VPWR X
.ends

* Black-box entry subcircuit for sky130_fd_sc_hd__a311o_1 abstract view
.subckt sky130_fd_sc_hd__a311o_1 A1 A2 A3 B1 C1 VGND VNB VPB VPWR X
.ends

* Black-box entry subcircuit for sky130_fd_sc_hd__o21ba_1 abstract view
.subckt sky130_fd_sc_hd__o21ba_1 A1 A2 B1_N VGND VNB VPB VPWR X
.ends

* Black-box entry subcircuit for sky130_fd_sc_hd__a22oi_1 abstract view
.subckt sky130_fd_sc_hd__a22oi_1 A1 A2 B1 B2 VGND VNB VPB VPWR Y
.ends

* Black-box entry subcircuit for sky130_fd_sc_hd__o311ai_1 abstract view
.subckt sky130_fd_sc_hd__o311ai_1 A1 A2 A3 B1 C1 VGND VNB VPB VPWR Y
.ends

* Black-box entry subcircuit for sky130_fd_sc_hd__nand2_2 abstract view
.subckt sky130_fd_sc_hd__nand2_2 A B VGND VNB VPB VPWR Y
.ends

* Black-box entry subcircuit for sky130_fd_sc_hd__a2111oi_1 abstract view
.subckt sky130_fd_sc_hd__a2111oi_1 A1 A2 B1 C1 D1 VGND VNB VPB VPWR Y
.ends

* Black-box entry subcircuit for sky130_fd_sc_hd__o211ai_1 abstract view
.subckt sky130_fd_sc_hd__o211ai_1 A1 A2 B1 C1 VGND VNB VPB VPWR Y
.ends

* Black-box entry subcircuit for sky130_fd_sc_hd__or3b_2 abstract view
.subckt sky130_fd_sc_hd__or3b_2 A B C_N VGND VNB VPB VPWR X
.ends

* Black-box entry subcircuit for sky130_fd_sc_hd__o31ai_1 abstract view
.subckt sky130_fd_sc_hd__o31ai_1 A1 A2 A3 B1 VGND VNB VPB VPWR Y
.ends

* Black-box entry subcircuit for sky130_fd_sc_hd__a211oi_2 abstract view
.subckt sky130_fd_sc_hd__a211oi_2 A1 A2 B1 C1 VGND VNB VPB VPWR Y
.ends

* Black-box entry subcircuit for sky130_fd_sc_hd__a21boi_1 abstract view
.subckt sky130_fd_sc_hd__a21boi_1 A1 A2 B1_N VGND VNB VPB VPWR Y
.ends

* Black-box entry subcircuit for sky130_fd_sc_hd__clkbuf_16 abstract view
.subckt sky130_fd_sc_hd__clkbuf_16 A VGND VNB VPB VPWR X
.ends

* Black-box entry subcircuit for sky130_fd_sc_hd__xor2_2 abstract view
.subckt sky130_fd_sc_hd__xor2_2 A B VGND VNB VPB VPWR X
.ends

* Black-box entry subcircuit for sky130_fd_sc_hd__nor3b_1 abstract view
.subckt sky130_fd_sc_hd__nor3b_1 A B C_N VGND VNB VPB VPWR Y
.ends

* Black-box entry subcircuit for sky130_fd_sc_hd__and2_2 abstract view
.subckt sky130_fd_sc_hd__and2_2 A B VGND VNB VPB VPWR X
.ends

* Black-box entry subcircuit for sky130_fd_sc_hd__a21oi_4 abstract view
.subckt sky130_fd_sc_hd__a21oi_4 A1 A2 B1 VGND VNB VPB VPWR Y
.ends

* Black-box entry subcircuit for sky130_fd_sc_hd__a211o_2 abstract view
.subckt sky130_fd_sc_hd__a211o_2 A1 A2 B1 C1 VGND VNB VPB VPWR X
.ends

* Black-box entry subcircuit for sky130_fd_sc_hd__and4bb_1 abstract view
.subckt sky130_fd_sc_hd__and4bb_1 A_N B_N C D VGND VNB VPB VPWR X
.ends

* Black-box entry subcircuit for sky130_fd_sc_hd__o21ba_2 abstract view
.subckt sky130_fd_sc_hd__o21ba_2 A1 A2 B1_N VGND VNB VPB VPWR X
.ends

* Black-box entry subcircuit for sky130_fd_sc_hd__o41a_1 abstract view
.subckt sky130_fd_sc_hd__o41a_1 A1 A2 A3 A4 B1 VGND VNB VPB VPWR X
.ends

* Black-box entry subcircuit for sky130_fd_sc_hd__o2111a_1 abstract view
.subckt sky130_fd_sc_hd__o2111a_1 A1 A2 B1 C1 D1 VGND VNB VPB VPWR X
.ends

* Black-box entry subcircuit for sky130_fd_sc_hd__o21ai_4 abstract view
.subckt sky130_fd_sc_hd__o21ai_4 A1 A2 B1 VGND VNB VPB VPWR Y
.ends

* Black-box entry subcircuit for sky130_fd_sc_hd__nor3_2 abstract view
.subckt sky130_fd_sc_hd__nor3_2 A B C VGND VNB VPB VPWR Y
.ends

* Black-box entry subcircuit for sky130_fd_sc_hd__a221oi_4 abstract view
.subckt sky130_fd_sc_hd__a221oi_4 A1 A2 B1 B2 C1 VGND VNB VPB VPWR Y
.ends

* Black-box entry subcircuit for sky130_fd_sc_hd__a21boi_2 abstract view
.subckt sky130_fd_sc_hd__a21boi_2 A1 A2 B1_N VGND VNB VPB VPWR Y
.ends

* Black-box entry subcircuit for sky130_fd_sc_hd__o21a_2 abstract view
.subckt sky130_fd_sc_hd__o21a_2 A1 A2 B1 VGND VNB VPB VPWR X
.ends

* Black-box entry subcircuit for sky130_fd_sc_hd__o22ai_2 abstract view
.subckt sky130_fd_sc_hd__o22ai_2 A1 A2 B1 B2 VGND VNB VPB VPWR Y
.ends

* Black-box entry subcircuit for sky130_fd_sc_hd__or4b_2 abstract view
.subckt sky130_fd_sc_hd__or4b_2 A B C D_N VGND VNB VPB VPWR X
.ends

* Black-box entry subcircuit for sky130_fd_sc_hd__and4_2 abstract view
.subckt sky130_fd_sc_hd__and4_2 A B C D VGND VNB VPB VPWR X
.ends

* Black-box entry subcircuit for sky130_fd_sc_hd__or4_2 abstract view
.subckt sky130_fd_sc_hd__or4_2 A B C D VGND VNB VPB VPWR X
.ends

* Black-box entry subcircuit for sky130_fd_sc_hd__a2111o_1 abstract view
.subckt sky130_fd_sc_hd__a2111o_1 A1 A2 B1 C1 D1 VGND VNB VPB VPWR X
.ends

* Black-box entry subcircuit for sky130_fd_sc_hd__o221ai_1 abstract view
.subckt sky130_fd_sc_hd__o221ai_1 A1 A2 B1 B2 C1 VGND VNB VPB VPWR Y
.ends

* Black-box entry subcircuit for sky130_fd_sc_hd__nand4_1 abstract view
.subckt sky130_fd_sc_hd__nand4_1 A B C D VGND VNB VPB VPWR Y
.ends

* Black-box entry subcircuit for sky130_fd_sc_hd__nor3_4 abstract view
.subckt sky130_fd_sc_hd__nor3_4 A B C VGND VNB VPB VPWR Y
.ends

* Black-box entry subcircuit for sky130_fd_sc_hd__xnor2_2 abstract view
.subckt sky130_fd_sc_hd__xnor2_2 A B VGND VNB VPB VPWR Y
.ends

* Black-box entry subcircuit for sky130_fd_sc_hd__o31ai_4 abstract view
.subckt sky130_fd_sc_hd__o31ai_4 A1 A2 A3 B1 VGND VNB VPB VPWR Y
.ends

* Black-box entry subcircuit for sky130_fd_sc_hd__or4b_4 abstract view
.subckt sky130_fd_sc_hd__or4b_4 A B C D_N VGND VNB VPB VPWR X
.ends

* Black-box entry subcircuit for sky130_fd_sc_hd__or4_4 abstract view
.subckt sky130_fd_sc_hd__or4_4 A B C D VGND VNB VPB VPWR X
.ends

* Black-box entry subcircuit for sky130_fd_sc_hd__xnor2_4 abstract view
.subckt sky130_fd_sc_hd__xnor2_4 A B VGND VNB VPB VPWR Y
.ends

* Black-box entry subcircuit for sky130_fd_sc_hd__nand3_4 abstract view
.subckt sky130_fd_sc_hd__nand3_4 A B C VGND VNB VPB VPWR Y
.ends

* Black-box entry subcircuit for sky130_fd_sc_hd__or3_4 abstract view
.subckt sky130_fd_sc_hd__or3_4 A B C VGND VNB VPB VPWR X
.ends

* Black-box entry subcircuit for sky130_fd_sc_hd__o221ai_2 abstract view
.subckt sky130_fd_sc_hd__o221ai_2 A1 A2 B1 B2 C1 VGND VNB VPB VPWR Y
.ends

* Black-box entry subcircuit for sky130_fd_sc_hd__or3b_4 abstract view
.subckt sky130_fd_sc_hd__or3b_4 A B C_N VGND VNB VPB VPWR X
.ends

* Black-box entry subcircuit for sky130_fd_sc_hd__and2b_2 abstract view
.subckt sky130_fd_sc_hd__and2b_2 A_N B VGND VNB VPB VPWR X
.ends

* Black-box entry subcircuit for sky130_fd_sc_hd__and3_4 abstract view
.subckt sky130_fd_sc_hd__and3_4 A B C VGND VNB VPB VPWR X
.ends

* Black-box entry subcircuit for sky130_fd_sc_hd__o311ai_4 abstract view
.subckt sky130_fd_sc_hd__o311ai_4 A1 A2 A3 B1 C1 VGND VNB VPB VPWR Y
.ends

* Black-box entry subcircuit for sky130_fd_sc_hd__o21bai_2 abstract view
.subckt sky130_fd_sc_hd__o21bai_2 A1 A2 B1_N VGND VNB VPB VPWR Y
.ends

* Black-box entry subcircuit for sky130_fd_sc_hd__a31oi_2 abstract view
.subckt sky130_fd_sc_hd__a31oi_2 A1 A2 A3 B1 VGND VNB VPB VPWR Y
.ends

* Black-box entry subcircuit for sky130_fd_sc_hd__nor2_4 abstract view
.subckt sky130_fd_sc_hd__nor2_4 A B VGND VNB VPB VPWR Y
.ends

* Black-box entry subcircuit for sky130_fd_sc_hd__and3b_4 abstract view
.subckt sky130_fd_sc_hd__and3b_4 A_N B C VGND VNB VPB VPWR X
.ends

* Black-box entry subcircuit for sky130_fd_sc_hd__o2bb2a_2 abstract view
.subckt sky130_fd_sc_hd__o2bb2a_2 A1_N A2_N B1 B2 VGND VNB VPB VPWR X
.ends

* Black-box entry subcircuit for sky130_fd_sc_hd__o31ai_2 abstract view
.subckt sky130_fd_sc_hd__o31ai_2 A1 A2 A3 B1 VGND VNB VPB VPWR Y
.ends

* Black-box entry subcircuit for sky130_fd_sc_hd__o21ai_2 abstract view
.subckt sky130_fd_sc_hd__o21ai_2 A1 A2 B1 VGND VNB VPB VPWR Y
.ends

.subckt team_05 ACK_I ADR_O[0] ADR_O[10] ADR_O[11] ADR_O[12] ADR_O[13] ADR_O[14] ADR_O[15]
+ ADR_O[16] ADR_O[17] ADR_O[18] ADR_O[19] ADR_O[1] ADR_O[20] ADR_O[21] ADR_O[22] ADR_O[23]
+ ADR_O[24] ADR_O[25] ADR_O[26] ADR_O[27] ADR_O[28] ADR_O[29] ADR_O[2] ADR_O[30] ADR_O[31]
+ ADR_O[3] ADR_O[4] ADR_O[5] ADR_O[6] ADR_O[7] ADR_O[8] ADR_O[9] CYC_O DAT_I[0] DAT_I[10]
+ DAT_I[11] DAT_I[12] DAT_I[13] DAT_I[14] DAT_I[15] DAT_I[16] DAT_I[17] DAT_I[18]
+ DAT_I[19] DAT_I[1] DAT_I[20] DAT_I[21] DAT_I[22] DAT_I[23] DAT_I[24] DAT_I[25] DAT_I[26]
+ DAT_I[27] DAT_I[28] DAT_I[29] DAT_I[2] DAT_I[30] DAT_I[31] DAT_I[3] DAT_I[4] DAT_I[5]
+ DAT_I[6] DAT_I[7] DAT_I[8] DAT_I[9] DAT_O[0] DAT_O[10] DAT_O[11] DAT_O[12] DAT_O[13]
+ DAT_O[14] DAT_O[15] DAT_O[16] DAT_O[17] DAT_O[18] DAT_O[19] DAT_O[1] DAT_O[20] DAT_O[21]
+ DAT_O[22] DAT_O[23] DAT_O[24] DAT_O[25] DAT_O[26] DAT_O[27] DAT_O[28] DAT_O[29]
+ DAT_O[2] DAT_O[30] DAT_O[31] DAT_O[3] DAT_O[4] DAT_O[5] DAT_O[6] DAT_O[7] DAT_O[8]
+ DAT_O[9] SEL_O[0] SEL_O[1] SEL_O[2] SEL_O[3] STB_O WE_O clk en gpio_in[0] gpio_in[10]
+ gpio_in[11] gpio_in[12] gpio_in[13] gpio_in[14] gpio_in[15] gpio_in[16] gpio_in[17]
+ gpio_in[18] gpio_in[19] gpio_in[1] gpio_in[20] gpio_in[21] gpio_in[22] gpio_in[23]
+ gpio_in[24] gpio_in[25] gpio_in[26] gpio_in[27] gpio_in[28] gpio_in[29] gpio_in[2]
+ gpio_in[30] gpio_in[31] gpio_in[32] gpio_in[33] gpio_in[3] gpio_in[4] gpio_in[5]
+ gpio_in[6] gpio_in[7] gpio_in[8] gpio_in[9] gpio_oeb[0] gpio_oeb[10] gpio_oeb[11]
+ gpio_oeb[12] gpio_oeb[13] gpio_oeb[14] gpio_oeb[15] gpio_oeb[16] gpio_oeb[17] gpio_oeb[18]
+ gpio_oeb[19] gpio_oeb[1] gpio_oeb[20] gpio_oeb[21] gpio_oeb[22] gpio_oeb[23] gpio_oeb[24]
+ gpio_oeb[25] gpio_oeb[26] gpio_oeb[27] gpio_oeb[28] gpio_oeb[29] gpio_oeb[2] gpio_oeb[30]
+ gpio_oeb[31] gpio_oeb[32] gpio_oeb[33] gpio_oeb[3] gpio_oeb[4] gpio_oeb[5] gpio_oeb[6]
+ gpio_oeb[7] gpio_oeb[8] gpio_oeb[9] gpio_out[0] gpio_out[10] gpio_out[11] gpio_out[12]
+ gpio_out[13] gpio_out[14] gpio_out[15] gpio_out[16] gpio_out[17] gpio_out[18] gpio_out[19]
+ gpio_out[1] gpio_out[20] gpio_out[21] gpio_out[22] gpio_out[23] gpio_out[24] gpio_out[25]
+ gpio_out[26] gpio_out[27] gpio_out[28] gpio_out[29] gpio_out[2] gpio_out[30] gpio_out[31]
+ gpio_out[32] gpio_out[33] gpio_out[3] gpio_out[4] gpio_out[5] gpio_out[6] gpio_out[7]
+ gpio_out[8] gpio_out[9] nrst vccd1 vssd1
X_05903_ net489 _02538_ vssd1 vssd1 vccd1 vccd1 _02885_ sky130_fd_sc_hd__or2_1
X_06883_ top.compVal\[12\] top.findLeastValue.val1\[12\] net154 vssd1 vssd1 vccd1
+ vccd1 _03647_ sky130_fd_sc_hd__mux2_1
X_09671_ net754 net589 vssd1 vssd1 vccd1 vccd1 _00302_ sky130_fd_sc_hd__and2_1
X_08622_ top.cb_syn.end_cnt\[3\] _04841_ vssd1 vssd1 vccd1 vccd1 _04842_ sky130_fd_sc_hd__or2_1
XANTENNA__05545__B1 net538 vssd1 vssd1 vccd1 vccd1 sky130_fd_sc_hd__diode_2
X_05834_ top.hTree.state\[2\] _02841_ _02853_ _02854_ vssd1 vssd1 vccd1 vccd1 _02856_
+ sky130_fd_sc_hd__and4_1
X_08553_ net1327 top.cb_syn.char_path_n\[6\] net238 vssd1 vssd1 vccd1 vccd1 _01489_
+ sky130_fd_sc_hd__mux2_1
X_05765_ top.compVal\[43\] net162 _02806_ top.WB.CPU_DAT_O\[11\] vssd1 vssd1 vccd1
+ vccd1 _02328_ sky130_fd_sc_hd__a22o_1
XANTENNA__09304__S top.translation.index\[4\] vssd1 vssd1 vccd1 vccd1 sky130_fd_sc_hd__diode_2
X_08484_ net1367 top.cb_syn.char_path_n\[75\] net244 vssd1 vssd1 vccd1 vccd1 _01558_
+ sky130_fd_sc_hd__mux2_1
X_07504_ _02989_ _04103_ vssd1 vssd1 vccd1 vccd1 _04104_ sky130_fd_sc_hd__nor2_2
XTAP_TAPCELL_ROW_85_1362 vssd1 vccd1 sky130_fd_sc_hd__tapvpwrvgnd_1
XTAP_TAPCELL_ROW_53_949 vssd1 vccd1 sky130_fd_sc_hd__tapvpwrvgnd_1
XANTENNA_fanout162_A _02805_ vssd1 vssd1 vccd1 vccd1 sky130_fd_sc_hd__diode_2
XFILLER_0_119_235 vccd1 vssd1 vccd1 vssd1 sky130_ef_sc_hd__decap_12
X_05696_ top.cb_syn.char_path\[5\] net549 net541 top.cb_syn.char_path\[69\] vssd1
+ vssd1 vccd1 vccd1 _02753_ sky130_fd_sc_hd__a22o_1
XANTENNA__06987__A2_N net125 vssd1 vssd1 vccd1 vccd1 sky130_fd_sc_hd__diode_2
XFILLER_0_18_712 vssd1 vssd1 vccd1 vccd1 sky130_fd_sc_hd__fill_1
X_07435_ net344 top.dut.bits_in_buf_next\[2\] vssd1 vssd1 vccd1 vccd1 _04045_ sky130_fd_sc_hd__nor2_2
XANTENNA_fanout427_A net428 vssd1 vssd1 vccd1 vccd1 sky130_fd_sc_hd__diode_2
XFILLER_0_91_169 vssd1 vssd1 vccd1 vccd1 sky130_fd_sc_hd__fill_1
X_07366_ _03814_ _03850_ _03812_ vssd1 vssd1 vccd1 vccd1 _04008_ sky130_fd_sc_hd__o21a_1
XTAP_TAPCELL_ROW_33_684 vssd1 vccd1 sky130_fd_sc_hd__tapvpwrvgnd_1
X_06317_ net406 _03089_ _03185_ vssd1 vssd1 vccd1 vccd1 _03186_ sky130_fd_sc_hd__nand3_1
X_09105_ net481 _05122_ vssd1 vssd1 vccd1 vccd1 _05123_ sky130_fd_sc_hd__nor2_1
X_07297_ _03743_ _03747_ _03958_ vssd1 vssd1 vccd1 vccd1 _03959_ sky130_fd_sc_hd__nand3_1
X_06248_ net482 net406 _03090_ _02503_ vssd1 vssd1 vccd1 vccd1 _03120_ sky130_fd_sc_hd__a211o_1
X_09036_ top.WB.CPU_DAT_O\[14\] net1286 net315 vssd1 vssd1 vccd1 vccd1 _01308_ sky130_fd_sc_hd__mux2_1
XANTENNA_fanout796_A net34 vssd1 vssd1 vccd1 vccd1 sky130_fd_sc_hd__diode_2
Xhold340 top.cb_syn.char_path\[58\] vssd1 vssd1 vccd1 vccd1 net1291 sky130_fd_sc_hd__dlygate4sd3_1
Xhold351 top.cb_syn.char_path\[99\] vssd1 vssd1 vccd1 vccd1 net1302 sky130_fd_sc_hd__dlygate4sd3_1
X_06179_ net445 _03053_ vssd1 vssd1 vccd1 vccd1 _03054_ sky130_fd_sc_hd__nand2_1
Xhold362 top.hTree.tree_reg\[34\] vssd1 vssd1 vccd1 vccd1 net1313 sky130_fd_sc_hd__dlygate4sd3_1
Xhold373 top.cb_syn.char_path\[33\] vssd1 vssd1 vccd1 vccd1 net1324 sky130_fd_sc_hd__dlygate4sd3_1
Xhold384 top.hTree.nulls\[55\] vssd1 vssd1 vccd1 vccd1 net1335 sky130_fd_sc_hd__dlygate4sd3_1
Xhold395 top.histogram.sram_out\[3\] vssd1 vssd1 vccd1 vccd1 net1346 sky130_fd_sc_hd__dlygate4sd3_1
X_09938_ net791 net626 vssd1 vssd1 vccd1 vccd1 _00569_ sky130_fd_sc_hd__and2_1
XANTENNA__08970__A0 top.WB.CPU_DAT_O\[31\] vssd1 vssd1 vccd1 vccd1 sky130_fd_sc_hd__diode_2
Xfanout842 net843 vssd1 vssd1 vccd1 vccd1 net842 sky130_fd_sc_hd__clkbuf_2
XANTENNA__07773__A1 net422 vssd1 vssd1 vccd1 vccd1 sky130_fd_sc_hd__diode_2
XTAP_TAPCELL_ROW_5_321 vssd1 vccd1 sky130_fd_sc_hd__tapvpwrvgnd_1
Xfanout820 net826 vssd1 vssd1 vccd1 vccd1 net820 sky130_fd_sc_hd__clkbuf_2
Xfanout831 net834 vssd1 vssd1 vccd1 vccd1 net831 sky130_fd_sc_hd__clkbuf_2
Xfanout853 net854 vssd1 vssd1 vccd1 vccd1 net853 sky130_fd_sc_hd__clkbuf_2
Xfanout875 net876 vssd1 vssd1 vccd1 vccd1 net875 sky130_fd_sc_hd__clkbuf_2
Xfanout864 net865 vssd1 vssd1 vccd1 vccd1 net864 sky130_fd_sc_hd__clkbuf_2
X_09869_ net847 net682 vssd1 vssd1 vccd1 vccd1 _00500_ sky130_fd_sc_hd__and2_1
XANTENNA__06130__C net208 vssd1 vssd1 vccd1 vccd1 sky130_fd_sc_hd__diode_2
X_11900_ net931 vssd1 vssd1 vccd1 vccd1 gpio_oeb[13] sky130_fd_sc_hd__buf_2
X_11831_ clknet_leaf_67_clk _02364_ _01203_ vssd1 vssd1 vccd1 vccd1 net91 sky130_fd_sc_hd__dfrtp_1
XANTENNA__07289__B1 net276 vssd1 vssd1 vccd1 vccd1 sky130_fd_sc_hd__diode_2
X_11762_ clknet_leaf_74_clk net1276 vssd1 vssd1 vccd1 vccd1 top.hTree.node_reg\[49\]
+ sky130_fd_sc_hd__dfxtp_1
XFILLER_0_67_166 vssd1 vssd1 vccd1 vccd1 sky130_fd_sc_hd__fill_2
X_10713_ clknet_leaf_45_clk _01344_ _00103_ vssd1 vssd1 vccd1 vccd1 top.hTree.nulls\[57\]
+ sky130_fd_sc_hd__dfrtp_1
X_11693_ clknet_leaf_103_clk _02243_ _01083_ vssd1 vssd1 vccd1 vccd1 top.compVal\[26\]
+ sky130_fd_sc_hd__dfrtp_4
X_10644_ clknet_leaf_75_clk _01275_ vssd1 vssd1 vccd1 vccd1 top.hTree.node_reg\[27\]
+ sky130_fd_sc_hd__dfxtp_1
X_10575_ net785 net620 vssd1 vssd1 vccd1 vccd1 _01206_ sky130_fd_sc_hd__and2_1
XANTENNA__08636__S0 net500 vssd1 vssd1 vccd1 vccd1 sky130_fd_sc_hd__diode_2
X_11127_ clknet_leaf_62_clk _01692_ _00517_ vssd1 vssd1 vccd1 vccd1 top.cb_syn.char_path_n\[73\]
+ sky130_fd_sc_hd__dfrtp_2
XANTENNA__07764__B2 top.findLeastValue.sum\[45\] vssd1 vssd1 vccd1 vccd1 sky130_fd_sc_hd__diode_2
XANTENNA__07764__A1 net438 vssd1 vssd1 vccd1 vccd1 sky130_fd_sc_hd__diode_2
XANTENNA__08961__A0 top.WB.CPU_DAT_O\[7\] vssd1 vssd1 vccd1 vccd1 sky130_fd_sc_hd__diode_2
XANTENNA__05775__B1 net147 vssd1 vssd1 vccd1 vccd1 sky130_fd_sc_hd__diode_2
X_11058_ clknet_leaf_47_clk _01623_ _00448_ vssd1 vssd1 vccd1 vccd1 top.cb_syn.char_path_n\[4\]
+ sky130_fd_sc_hd__dfrtp_1
X_10009_ net811 net646 vssd1 vssd1 vccd1 vccd1 _00640_ sky130_fd_sc_hd__and2_1
XFILLER_0_58_100 vssd1 vssd1 vccd1 vccd1 sky130_fd_sc_hd__fill_1
X_05550_ net1796 net166 _02631_ net213 vssd1 vssd1 vccd1 vccd1 _02368_ sky130_fd_sc_hd__a22o_1
XFILLER_0_80_13 vssd1 vssd1 vccd1 vccd1 sky130_fd_sc_hd__decap_3
XFILLER_0_58_144 vssd1 vssd1 vccd1 vccd1 sky130_fd_sc_hd__decap_4
XTAP_TAPCELL_ROW_50_908 vssd1 vccd1 sky130_fd_sc_hd__tapvpwrvgnd_1
X_05481_ net29 net415 net364 top.WB.CPU_DAT_O\[5\] vssd1 vssd1 vccd1 vccd1 _02377_
+ sky130_fd_sc_hd__a22o_1
XFILLER_0_116_216 vssd1 vssd1 vccd1 vccd1 sky130_fd_sc_hd__fill_1
XANTENNA__08229__C1 net176 vssd1 vssd1 vccd1 vccd1 sky130_fd_sc_hd__diode_2
X_07220_ top.findLeastValue.val2\[40\] top.findLeastValue.val1\[40\] vssd1 vssd1 vccd1
+ vccd1 _03896_ sky130_fd_sc_hd__or2_1
XFILLER_0_27_531 vssd1 vssd1 vccd1 vccd1 sky130_fd_sc_hd__fill_1
XFILLER_0_82_681 vssd1 vssd1 vccd1 vccd1 sky130_fd_sc_hd__fill_1
X_07151_ top.findLeastValue.val2\[1\] top.findLeastValue.val1\[1\] vssd1 vssd1 vccd1
+ vccd1 _03827_ sky130_fd_sc_hd__and2_1
XTAP_TAPCELL_ROW_30_643 vssd1 vccd1 sky130_fd_sc_hd__tapvpwrvgnd_1
XTAP_TAPCELL_ROW_30_654 vssd1 vccd1 sky130_fd_sc_hd__tapvpwrvgnd_1
X_06102_ top.cb_syn.count\[4\] _03000_ vssd1 vssd1 vccd1 vccd1 _03002_ sky130_fd_sc_hd__nand2_1
XFILLER_0_2_620 vssd1 vssd1 vccd1 vccd1 sky130_fd_sc_hd__fill_1
X_07082_ _03743_ _03747_ _03744_ _03742_ vssd1 vssd1 vccd1 vccd1 _03758_ sky130_fd_sc_hd__a211oi_1
X_06033_ _02928_ _02937_ vssd1 vssd1 vccd1 vccd1 _02161_ sky130_fd_sc_hd__nor2_1
XANTENNA__07755__A1 top.findLeastValue.least2\[0\] vssd1 vssd1 vccd1 vccd1 sky130_fd_sc_hd__diode_2
Xfanout127 _03611_ vssd1 vssd1 vccd1 vccd1 net127 sky130_fd_sc_hd__clkbuf_4
Xfanout138 net139 vssd1 vssd1 vccd1 vccd1 net138 sky130_fd_sc_hd__clkbuf_4
Xfanout116 _03661_ vssd1 vssd1 vccd1 vccd1 net116 sky130_fd_sc_hd__clkbuf_4
XFILLER_0_10_475 vssd1 vssd1 vccd1 vccd1 sky130_fd_sc_hd__fill_1
XANTENNA__08952__A0 top.WB.CPU_DAT_O\[16\] vssd1 vssd1 vccd1 vccd1 sky130_fd_sc_hd__diode_2
Xfanout149 net150 vssd1 vssd1 vccd1 vccd1 net149 sky130_fd_sc_hd__clkbuf_4
XFILLER_0_10_497 vssd1 vssd1 vccd1 vccd1 sky130_fd_sc_hd__fill_1
XANTENNA__05766__B1 net147 vssd1 vssd1 vccd1 vccd1 sky130_fd_sc_hd__diode_2
X_07984_ net436 net1538 net250 top.findLeastValue.sum\[1\] _04513_ vssd1 vssd1 vccd1
+ vccd1 _01790_ sky130_fd_sc_hd__a221o_1
X_09723_ net867 net702 vssd1 vssd1 vccd1 vccd1 _00354_ sky130_fd_sc_hd__and2_1
X_06935_ top.findLeastValue.val1\[22\] net139 net116 net1784 vssd1 vssd1 vccd1 vccd1
+ _01983_ sky130_fd_sc_hd__o22a_1
X_09654_ net774 net609 vssd1 vssd1 vccd1 vccd1 _00285_ sky130_fd_sc_hd__and2_1
XANTENNA_fanout377_A net386 vssd1 vssd1 vccd1 vccd1 sky130_fd_sc_hd__diode_2
X_06866_ top.findLeastValue.val2\[21\] net132 net117 _03638_ vssd1 vssd1 vccd1 vccd1
+ _02029_ sky130_fd_sc_hd__o22a_1